&glob FOO BAR
{ preprocessor/preprocessor20-1.i
      &param1 = ""
      &param2 = ""
      &param3 = " "
      &param4 = "{ preprocessor/preprocessor20-2.i {&FOO}}"
      &param5 = " test "
      }
{ preprocessor/preprocessor20-3.i "" "value1" value2 ""value3"":U ""value4"" " " }
